LAMMPS (29 Oct 2020)
boundary    p p p

variable        ave_time    equal 10.0
variable        step        equal 0.0005
variable        nsnapshots  equal 1000
variable        Temp        equal 0.44

variable        nsteps      equal 10/0.0005
variable        frequency   equal 20000/1000
variable        F_thermo    equal 20*10

#если шаг -- 0.01 то 10000 снапшотов, 10000 шагов

units           lj # define units for model
atom_style      atomic # model without bonds

region          box block 0 10 0 10 0 10 # create box by multiplying by 10x10x10 initial unit cell
create_box      1 box # create box
Created orthogonal box = (0.0000000 0.0000000 0.0000000) to (10.000000 10.000000 10.000000)

read_dump start/start.dump 10000 x y z vx vy vz add yes
Scanning dump file ...
Reading snapshot from dump file ...
  orthogonal box = (0.0000000 0.0000000 0.0000000) to (20.000000 20.000000 20.000000)
  0 atoms before read
  4000 atoms in snapshot
  0 atoms purged
  0 atoms replaced
  0 atoms trimmed
  4000 atoms added
  4000 atoms after read
mass            1 1.0

pair_style      lj/cut 2.5 # force field parameters
pair_coeff      1 1 1.0 1.0 2.5 # force field parameters

reset_timestep  0
timestep        0.0005

fix             nvt all nvt temp 0.44 0.44 0.44

dump dump_1 all custom 20 res_indata/0.0005.txt id type xu yu zu vx vy vz
dump_modify dump_1 sort id

thermo          200
run             20000
  update every 1 steps, delay 10 steps, check yes
Step Temp E_pair E_mol TotEng Press
0   0.44074592   -5.8435134            0   -5.1825598 -0.086056625
Averages over the last 51 of 101 rows, steps 10000 to 20000:
Temp E_pair E_mol TotEng Press
0.440167 -5.87292 0 -5.21284 -0.118138
Loop time of 48.2814 on 1 procs for 20000 steps with 4000 atoms

unfix           nvt
